
##########################################################################
#               Crystallographic Information Format file
#               Produced by PyCifRW module
#
#  This is a CIF file.  CIF has been adopted by the International
#  Union of Crystallography as the standard for data archiving and
#  transmission.
#
#  For information on this file format, follow the CIF links at
#  http://www.iucr.org
##########################################################################

data_image0

_cell_length_a                          21.8172
_cell_length_b                          21.3424
_cell_length_c                          8.5476
_cell_angle_alpha                       110.834
_cell_angle_beta                        48.4766
_cell_angle_gamma                       120.684
_symmetry_space_group_name_H-M          'P 1'
_space_group_name_Hall                  'P 1'
loop_
  _atom_site_type_symbol
  _atom_site_label
  _atom_site_fract_x
  _atom_site_fract_y
  _atom_site_fract_z
  _atom_site_charge
         C         C         0.58308   0.99543   0.20896   -0.052320           
         C         C         0.99559   0.56839   0.29448   -0.040041           
         C         C         0.43203   0.42466   0.25859   -0.043035           
         C         C         0.43289   0.99754   0.26675   -0.046397           
         C         C         0.01491   0.42712   0.18849   -0.042821           
         C         C         0.57696   0.56691   0.22345   -0.038884           
         C         C         0.57520   0.05847   0.22159   0.099290  
         C         C         0.94073   0.50187   0.26144   0.097610  
         C         C         0.50228   0.43255   0.24890   0.097001  
         C         C         0.44041   0.93459   0.25558   0.100389  
         C         C         0.07013   0.49359   0.22005   0.099157  
         C         C         0.50684   0.55863   0.23209   0.102197  
         O         O         0.63610   0.12954   0.20634   -0.333224           
         O         O         0.87003   0.49088   0.26996   -0.336105           
         O         O         0.51497   0.37698   0.25855   -0.336739           
         O         O         0.37954   0.86382   0.26943   -0.331242           
         O         O         0.14092   0.50459   0.21126   -0.337705           
         O         O         0.49332   0.61419   0.22546   -0.342132           
         C         C         0.06144   0.56011   0.26944   0.106909  
         C         C         0.43869   0.49201   0.24905   0.107042  
         C         C         0.51027   0.93305   0.22984   0.109694  
         C         C         0.94975   0.43559   0.21143   0.106682  
         C         C         0.57056   0.49946   0.23241   0.106600  
         C         C         0.50503   0.05986   0.24852   0.108473  
         O         O         0.12683   0.61392   0.29170   -0.335662           
         O         O         0.38100   0.50412   0.25259   -0.336246           
         O         O         0.49390   0.86075   0.22764   -0.335210           
         O         O         0.88503   0.38174   0.18700   -0.332553           
         O         O         0.62716   0.48693   0.23204   -0.336904           
         O         O         0.52079   0.13175   0.25008   -0.332351           
         C         C         0.64211   0.25748   0.22403   -0.245705           
         C         C         0.75478   0.37478   0.22298   -0.234510           
         C         C         0.63544   0.37169   0.24404   -0.233947           
         C         C         0.37158   0.73542   0.25178   -0.244741           
         C         C         0.25614   0.61925   0.25874   -0.237946           
         C         C         0.37398   0.61999   0.23870   -0.234204           
         B         B         0.60110   0.17390   0.22521   0.584241  
         B         B         0.83621   0.41638   0.22487   0.571428  
         B         B         0.59245   0.41142   0.24685   0.576851  
         B         B         0.41380   0.81903   0.25103   0.581601  
         B         B         0.17506   0.57903   0.25558   0.574824  
         B         B         0.41572   0.57962   0.23749   0.572846  
         C         C         0.29686   0.58212   0.24743   -0.004551           
         C         C         0.41118   0.69645   0.23776   0.002888  
         C         C         0.29381   0.69595   0.26350   -0.000582           
         C         C         0.71179   0.41064   0.23870   -0.006186           
         C         C         0.60109   0.29513   0.23847   0.001215  
         C         C         0.71940   0.29813   0.21406   -0.000635           
         H         H         0.47136   0.72626   0.22916   0.105094  
         H         H         0.26320   0.72538   0.27104   0.105079  
         H         H         0.26841   0.52278   0.24473   0.107327  
         H         H         0.54207   0.26428   0.24231   0.105505  
         H         H         0.75137   0.26945   0.20395   0.102927  
         H         H         0.73839   0.46999   0.24609   0.110244  
         H         H         0.64310   0.68043   0.16964   0.100549  
         H         H         0.36568   0.97782   0.14409   0.088210  
         H         H         0.06684   0.34800   0.96658   0.096018  
         H         H         0.35978   0.34449   0.14149   0.102909  
         H         H         0.72300   0.03145   0.03391   0.094784  
         H         H         0.94809   0.63134   0.28709   0.103856  
         H         H         0.37198   0.30917   0.27247   0.105784  
         H         H         0.66548   0.03264   0.30335   0.094172  
         H         H         0.93517   0.64318   0.51943   0.096686  
         H         H         0.62392   0.65697   0.37879   0.098711  
         H         H         0.29583   0.94861   0.39845   0.099393  
         H         H         0.06399   0.36249   0.18569   0.103939  
         H         H         0.76478   0.63119   0.91741   0.083169  
         H         H         0.39054   0.10608   0.26461   0.089654  
         H         H         0.90320   0.27978   0.17468   0.089167  
         H         H         0.25084   0.39157   0.48198   0.092729  
         H         H         0.66033   0.89245   0.03038   0.085635  
         H         H         0.11967   0.69643   0.10382   0.081410  
         H         H         0.26374   0.35922   0.61631   0.079686  
         H         H         0.60642   0.89649   0.29965   0.085848  
         H         H         0.09251   0.72261   0.35417   0.086728  
         H         H         0.74355   0.60759   0.13002   0.091005  
         H         H         0.33507   0.08420   0.51825   0.083063  
         H         H         0.89304   0.30338   0.40601   0.082375  
         H         H         0.78003   0.73974   0.25528   0.114484  
         H         H         0.19088   0.01141   0.56701   0.110940  
         H         H         0.97991   0.22840   0.28277   0.109361  
         H         H         0.20483   0.22925   0.49235   0.112996  
         H         H         0.75674   0.97207   0.23583   0.112985  
         H         H         0.00596   0.78729   0.42196   0.109066  
         H         H         0.18980   0.26324   0.36379   0.116396  
         H         H         0.80997   0.96431   0.96329   0.115845  
         H         H         0.02956   0.75713   0.17209   0.113771  
         H         H         0.80396   0.76436   0.03817   0.110269  
         H         H         0.24365   0.02313   0.30366   0.117206  
         H         H         0.98371   0.20153   0.05670   0.111875  
         C         C         0.64529   0.64061   0.21767   -0.162477           
         C         C         0.35525   0.99390   0.29497   -0.164459           
         C         C         0.02540   0.35636   0.13749   -0.157193           
         C         C         0.35829   0.35325   0.27874   -0.168021           
         C         C         0.66237   -0.00048  0.17469   -0.165110           
         C         C         0.98220   0.63786   0.34835   -0.157372           
         C         C         0.74137   0.64665   0.07996   -0.106061           
         C         C         0.33605   0.06321   0.37974   -0.105637           
         C         C         0.93658   0.28967   0.24061   -0.114776           
         C         C         0.26478   0.34824   0.47896   -0.110234           
         C         C         0.66522   0.92663   0.15550   -0.106728           
         C         C         0.06777   0.70776   0.26333   -0.108113           
         C         C         0.80240   0.72405   0.09364   -0.383895           
         C         C         0.24713   0.04858   0.43567   -0.375965           
         C         C         0.94606   0.22040   0.21959   -0.374027           
         C         C         0.19254   0.27367   0.49487   -0.376006           
         C         C         0.75023   0.93776   0.11282   -0.375617           
         C         C         0.05420   0.77139   0.26334   -0.373068           
         H         H         0.87084   0.72899   0.00009   0.109874  
         H         H         0.23635   0.09909   0.48082   0.116960  
         H         H         0.88028   0.17613   0.30631   0.119590  
         H         H         0.12621   0.26965   0.63961   0.108004  
         H         H         0.75024   0.88551   0.10726   0.116483  
         H         H         0.11698   0.81971   0.19323   0.119876  
         C         C         0.57042   0.00223   0.71166   -0.047213           
         C         C         0.98550   0.57136   0.80208   -0.040492           
         C         C         0.42783   0.43645   0.76687   -0.041769           
         C         C         0.41956   0.00322   0.77064   -0.052702           
         C         C         0.00552   0.43080   0.69926   -0.042383           
         C         C         0.57382   0.57901   0.72611   -0.039049           
         C         C         0.56267   0.06494   0.72124   0.102445  
         C         C         0.93077   0.50444   0.77014   0.097906  
         C         C         0.49850   0.44475   0.75536   0.103477  
         C         C         0.42820   0.94070   0.75749   0.099089  
         C         C         0.06088   0.49791   0.72831   0.097241  
         C         C         0.50278   0.57038   0.73701   0.095508  
         O         O         0.62333   0.13596   0.70598   -0.332037           
         O         O         0.86033   0.49294   0.77698   -0.337451           
         O         O         0.51100   0.38909   0.76416   -0.340343           
         O         O         0.36719   0.86974   0.77322   -0.332815           
         O         O         0.13203   0.50898   0.71775   -0.335294           
         O         O         0.48860   0.62541   0.72932   -0.338798           
         C         C         0.05173   0.56401   0.77762   0.107249  
         C         C         0.43425   0.50356   0.75680   0.104053  
         C         C         0.49846   0.93955   0.73018   0.109971  
         C         C         0.93946   0.43805   0.72306   0.106830  
         C         C         0.56744   0.51158   0.73589   0.108915  
         C         C         0.49227   0.06607   0.74825   0.109466  
         O         O         0.11695   0.61812   0.80039   -0.333354           
         O         O         0.37573   0.51473   0.76180   -0.333891           
         O         O         0.48288   0.86758   0.72764   -0.334112           
         O         O         0.87400   0.38368   0.70148   -0.334358           
         O         O         0.62454   0.49850   0.73296   -0.337757           
         O         O         0.50794   0.13810   0.74969   -0.332891           
         C         C         0.63063   0.26412   0.72784   -0.245443           
         C         C         0.74620   0.37876   0.72701   -0.238305           
         C         C         0.63029   0.38132   0.74587   -0.234373           
         C         C         0.36173   0.74210   0.75369   -0.244982           
         C         C         0.24774   0.62439   0.76254   -0.235627           
         C         C         0.36703   0.62869   0.74406   -0.231485           
         B         B         0.58827   0.18037   0.72568   0.582285  
         B         B         0.82633   0.41833   0.73380   0.575209  
         B         B         0.58901   0.42303   0.74998   0.572779  
         B         B         0.40258   0.82552   0.75270   0.583734  
         B         B         0.16602   0.58339   0.76193   0.571506  
         B         B         0.41024   0.59007   0.74412   0.576612  
         C         C         0.28975   0.58906   0.75308   -0.006803           
         C         C         0.40281   0.70511   0.74135   0.000440  
         C         C         0.28420   0.70095   0.76485   0.000005  
         C         C         0.70705   0.41750   0.73828   -0.005170           
         C         C         0.59243   0.30474   0.74287   0.004388  
         C         C         0.70765   0.30213   0.71948   0.000117  
         H         H         0.46316   0.73652   0.73201   0.106797  
         H         H         0.25259   0.72871   0.77003   0.103070  
         H         H         0.26202   0.52977   0.75366   0.109609  
         H         H         0.53300   0.27637   0.74851   0.105221  
         H         H         0.73707   0.27154   0.71205   0.105006  
         H         H         0.73678   0.47684   0.74133   0.109237  
         H         H         0.64447   0.69212   0.65979   0.098308  
         H         H         0.34473   0.97489   0.66151   0.091060  
         H         H         0.07146   0.35893   0.48071   0.098661  
         H         H         0.35115   0.35991   0.65929   0.099165  
         H         H         0.70985   0.03952   0.55013   0.094912  
         H         H         0.93183   0.63314   0.81176   0.103063  
         H         H         0.37250   0.32034   0.75859   0.105851  
         H         H         0.64688   0.03543   0.82061   0.091569  
         H         H         0.93139   0.64905   0.02776   0.096562  
         H         H         0.61598   0.67093   0.88554   0.102290  
         H         H         0.28166   0.95171   0.91856   0.098360  
         H         H         0.04977   0.36941   0.72356   0.102582  
         H         H         0.76494   0.64374   0.43647   0.083010  
         H         H         0.36708   0.10453   0.76657   0.087417  
         H         H         0.91464   0.27843   0.62578   0.086832  
         H         H         0.24679   0.40164   0.02515   0.091460  
         H         H         0.64624   0.89968   0.53017   0.086194  
         H         H         0.10371   0.69740   0.58813   0.085724  
         H         H         0.26403   0.35750   0.12385   0.081461  
         H         H         0.59120   0.89964   0.79869   0.085735  
         H         H         0.09324   0.72134   0.82076   0.088265  
         H         H         0.73362   0.61786   0.66052   0.091458  
         H         H         0.31729   0.08818   0.02156   0.084440  
         H         H         0.88171   0.30000   0.88180   0.081105  
         H         H         0.76926   0.75037   0.78940   0.114041  
         H         H         0.17146   0.00365   0.07887   0.114694  
         H         H         0.97040   0.23840   0.81617   0.111236  
         H         H         0.20306   0.23629   0.97262   0.115209  
         H         H         0.74011   0.97048   0.74068   0.114203  
         H         H         -0.00028  0.78966   0.95106   0.115004  
         H         H         0.18667   0.28204   0.87413   0.117030  
         H         H         0.79480   0.96999   0.46862   0.113302  
         H         H         0.00937   0.76527   0.71682   0.113402  
         H         H         0.80555   0.77628   0.55706   0.111355  
         H         H         0.21952   0.01425   0.81877   0.114742  
         H         H         0.00283   0.21528   0.55731   0.112083  
         C         C         0.64191   0.65303   0.72193   -0.164861           
         C         C         0.33846   0.99579   0.80725   -0.163296           
         C         C         0.01998   0.36235   0.65028   -0.155830           
         C         C         0.35469   0.36485   0.78582   -0.165854           
         C         C         0.64758   0.00534   0.68491   -0.161907           
         C         C         0.97228   0.64088   0.85655   -0.157860           
         C         C         0.73654   0.65820   0.60224   -0.104617           
         C         C         0.31589   0.06304   0.88683   -0.108336           
         C         C         0.93621   0.29133   0.72252   -0.105696           
         C         C         0.26233   0.35536   -0.00369  -0.106629           
         C         C         0.65037   0.93146   0.65793   -0.108300           
         C         C         0.05898   0.70933   0.75493   -0.115816           
         C         C         0.79694   0.73464   0.62444   -0.378346           
         C         C         0.22370   0.04172   0.94918   -0.377129           
         C         C         0.95056   0.22718   0.71639   -0.376139           
         C         C         0.19006   0.28378   -0.00167  -0.380301           
         C         C         0.73484   0.94028   0.61322   -0.374533           
         C         C         0.04239   0.77557   0.78476   -0.378388           
         H         H         0.86340   0.73736   0.54568   0.111210  
         H         H         0.20708   0.08931   -0.00103  0.117213  
         H         H         0.88923   0.17745   0.77295   0.120519  
         H         H         0.12380   0.27670   0.14712   0.109019  
         H         H         0.73582   0.88702   0.59466   0.117363  
         H         H         0.10485   0.82373   0.70966   0.120230 

