
##########################################################################
#               Crystallographic Information Format file
#               Produced by PyCifRW module
#
#  This is a CIF file.  CIF has been adopted by the International
#  Union of Crystallography as the standard for data archiving and
#  transmission.
#
#  For information on this file format, follow the CIF links at
#  http://www.iucr.org
##########################################################################

data_image0

_cell_length_a                          29.8289
_cell_length_b                          30.7237
_cell_length_c                          8.86893
_cell_angle_alpha                       115.112
_cell_angle_beta                        106.874
_cell_angle_gamma                       120.27
_symmetry_space_group_name_H-M          'P 1'
_space_group_name_Hall                  'P 1'
loop_
  _atom_site_type_symbol
  _atom_site_label
  _atom_site_fract_x
  _atom_site_fract_y
  _atom_site_fract_z
  _atom_site_charge
         C         C         0.38656   0.68524   0.27202   0.080846  
         C         C         0.30285   0.68672   0.22352   0.068901  
         C         C         0.29348   0.60589   0.24239   0.070263  
         C         C         0.36200   0.71295   0.25212   -0.152661           
         C         C         0.26866   0.63301   0.21913   -0.169592           
         C         C         0.35222   0.63196   0.26689   -0.152921           
         H         H         0.38822   0.75329   0.25125   0.118018  
         H         H         0.22248   0.61274   0.19564   0.105648  
         H         H         0.36951   0.60869   0.27668   0.116468  
         C         C         0.94532   0.97242   0.21057   0.079892  
         C         C         0.97144   0.94634   0.23693   -0.150939           
         C         C         0.03126   0.97395   0.26834   0.069234  
         C         C         0.03861   0.05302   0.24288   0.069938  
         C         C         0.06475   0.02737   0.27114   -0.176503           
         C         C         0.97890   0.02533   0.21343   -0.147836           
         H         H         0.96029   0.04718   0.19818   0.117724  
         H         H         0.94562   0.90612   0.23908   0.120495  
         H         H         0.11170   0.04895   0.29867   0.106885  
         C         C         0.71170   0.83617   0.20649   -0.111485           
         C         C         0.66513   0.77926   0.17393   -0.216916           
         C         C         0.61802   0.77004   0.19915   0.202612  
         C         C         0.61786   0.82071   0.26728   -0.113641           
         C         C         0.66440   0.87758   0.29988   -0.219818           
         C         C         0.71146   0.88693   0.27424   0.205080  
         C         C         0.57438   0.82267   0.31636   0.444179  
         C         C         0.75515   0.83365   0.15734   0.442792  
         C         C         0.16172   0.87599   0.25811   -0.097502           
         C         C         0.21246   0.88397   0.25939   -0.225884           
         C         C         0.21699   0.83877   0.23397   0.208659  
         C         C         0.16937   0.78245   0.20491   -0.094862           
         C         C         0.11867   0.77454   0.20392   -0.224712           
         C         C         0.11441   0.82022   0.23174   0.209480  
         C         C         0.16985   0.73213   0.19163   0.453303  
         C         C         0.15884   0.92377   0.26060   0.451528  
         C         C         0.12160   0.27201   0.21571   -0.101457           
         C         C         0.10384   0.30288   0.17832   -0.203651           
         C         C         0.14710   0.35917   0.20553   0.210137  
         C         C         0.21079   0.38677   0.26858   -0.101767           
         C         C         0.22883   0.35622   0.30734   -0.205232           
         C         C         0.18580   0.30033   0.28244   0.207144  
         C         C         0.26256   0.44561   0.29680   0.457579  
         C         C         0.06905   0.21168   0.17991   0.455019  
         O         O         0.75867   0.94479   0.31560   -0.218779           
         O         O         0.57031   0.71194   0.15596   -0.214229           
         O         O         0.06607   0.81437   0.23500   -0.210521           
         O         O         0.26711   0.84687   0.23809   -0.209760           
         O         O         0.20389   0.27045   0.32140   -0.215046           
         O         O         0.12974   0.38976   0.16953   -0.211352           
         C         C         0.75245   0.99180   0.35819   0.029454  
         C         C         0.57723   0.66577   0.11940   0.028272  
         C         C         0.51685   0.60482   0.06481   -0.191464           
         C         C         0.01170   0.75636   0.19139   0.041744  
         C         C         0.31636   0.90154   0.25999   0.039952  
         C         C         0.35421   0.88491   0.22059   -0.190487           
         C         C         0.26021   0.28529   0.33790   0.032823  
         C         C         0.25079   0.22758   0.30523   -0.184235           
         C         C         0.07651   0.37958   0.16603   0.031951  
         C         C         0.09228   0.44176   0.21547   -0.187681           
         C         C         0.81063   0.05132   0.40214   -0.187612           
         C         C         0.97936   0.77823   0.25303   -0.191728           
         N         N         0.52753   0.76672   0.28159   -0.242298           
         N         N         0.80296   0.89003   0.19543   -0.239921           
         N         N         0.48066   0.75834   0.29904   -0.087470           
         N         N         0.84985   0.89803   0.17762   -0.090702           
         N         N         0.21421   0.73396   0.16774   -0.220715           
         N         N         0.12302   0.93018   0.31827   -0.218600           
         N         N         0.23008   0.70220   0.19699   -0.115425           
         N         N         0.10308   0.95830   0.28128   -0.118792           
         N         N         0.24489   0.47673   0.26576   -0.239763           
         N         N         0.08811   0.18296   0.22231   -0.242446           
         N         N         0.28173   0.52655   0.26700   -0.102455           
         N         N         0.05039   0.13234   0.21738   -0.099678           
         C         C         0.44399   0.70671   0.28137   0.003593  
         C         C         0.27808   0.71509   0.19203   -0.006291           
         C         C         0.25892   0.55156   0.24244   -0.014774           
         C         C         0.88728   0.95028   0.19875   0.007730  
         C         C         0.05870   0.94812   0.30465   0.000954  
         C         C         0.07355   0.10793   0.24519   -0.015979           
         H         H         0.66849   0.74279   0.12969   0.130029  
         H         H         0.24764   0.92640   0.27698   0.129371  
         H         H         0.05381   0.27949   0.12247   0.137026  
         H         H         0.66072   0.91371   0.34420   0.130752  
         H         H         0.08357   0.73153   0.18468   0.129485  
         H         H         0.27886   0.37969   0.36177   0.133580  
         H         H         0.45327   0.67531   0.26541   0.086278  
         H         H         0.30275   0.74888   0.16616   0.083091  
         H         H         0.21415   0.53423   0.22725   0.081929  
         H         H         0.87837   0.98217   0.21699   0.085544  
         H         H         0.03962   0.91905   0.34983   0.088216  
         H         H         0.11925   0.12615   0.26497   0.080862  
         H         H         0.80276   0.92673   0.24124   0.241841  
         H         H         0.52879   0.73100   0.24021   0.241426  
         H         H         0.75542   0.01178   0.50096   0.068907  
         H         H         0.70255   0.96278   0.21736   0.080756  
         H         H         0.62609   0.69512   0.26660   0.081085  
         H         H         0.57712   0.64703   0.98238   0.068988  
         H         H         0.51497   0.62387   0.19686   0.098456  
         H         H         0.46926   0.57666   0.91611   0.116833  
         C         C         0.52223   0.55488   0.02865   -0.192707           
         S         S         0.45032   0.48194   0.96473   0.010084  
         C         C         0.47867   0.44220   0.97897   -0.151028           
         C         C         0.42191   0.37489   0.91083   -0.375422           
         H         H         0.56929   0.58116   0.17451   0.099630  
         H         H         0.52207   0.53508   0.89181   0.079549  
         H         H         0.52538   0.47876   0.14620   0.091701  
         H         H         0.49055   0.43175   0.87006   0.095352  
         H         H         0.37542   0.33850   0.74356   0.118005  
         H         H         0.40942   0.38532   0.01748   0.117588  
         H         H         0.43608   0.34840   0.91611   0.131565  
         H         H         0.10794   0.90919   0.37907   0.259307  
         H         H         0.23837   0.76387   0.13992   0.253283  
         H         H         0.03214   0.74905   0.29208   0.069057  
         H         H         0.97688   0.70878   0.01810   0.069495  
         H         H         0.34967   0.95241   0.42433   0.066747  
         H         H         0.29057   0.90048   0.13903   0.071727  
         H         H         0.37082   0.87664   0.32401   0.085539  
         H         H         0.31824   0.83506   0.05175   0.098005  
         C         C         0.41585   0.93977   0.26081   -0.193182           
         S         S         0.44582   0.90220   0.18259   0.007352  
         C         C         0.52357   0.97232   0.25756   -0.141354           
         C         C         0.55506   0.94739   0.20794   -0.381168           
         H         H         0.45592   0.98907   0.43344   0.093060  
         H         H         0.40249   0.95059   0.16268   0.092688  
         H         H         0.55749   0.01877   0.43123   0.085984  
         H         H         0.51119   0.98407   0.16168   0.076886  
         H         H         0.52065   0.90103   0.03402   0.121061  
         H         H         0.56693   0.93406   0.29881   0.137307  
         H         H         0.60201   0.98768   0.24856   0.123942  
         H         H         0.13315   0.20173   0.25858   0.233100  
         H         H         0.20033   0.45829   0.23255   0.232938  
         H         H         0.30828   0.33778   0.49784   0.067559  
         H         H         0.25799   0.28427   0.21016   0.072164  
         H         H         0.19973   0.17700   0.15000   0.094272  
         H         H         0.25183   0.22969   0.43351   0.090593  
         H         H         0.07803   0.37858   0.28990   0.076410  
         H         H         0.02702   0.32928   0.00494   0.072765  
         H         H         0.14233   0.48952   0.37798   0.091154  
         H         H         0.09810   0.44451   0.10179   0.089518  
         C         C         0.30371   0.23111   0.30511   -0.194972           
         S         S         0.28648   0.15993   0.26811   -0.013679           
         C         C         0.35098   0.17390   0.24936   -0.131362           
         C         C         0.34522   0.11628   0.19808   -0.372544           
         H         H         0.35541   0.28106   0.45834   0.089148  
         H         H         0.30120   0.22520   0.17045   0.081586  
         H         H         0.40113   0.22570   0.40456   0.081395  
         H         H         0.34239   0.17384   0.11977   0.082421  
         H         H         0.29494   0.06497   0.04177   0.143029  
         H         H         0.35251   0.11555   0.32550   0.123291  
         H         H         0.38404   0.12444   0.18712   0.115739  
         C         C         0.03985   0.44111   0.20375   -0.200825           
         S         S         0.07313   0.52448   0.30382   0.003637  
         C         C         0.99330   0.49782   0.16253   -0.137964           
         C         C         0.00848   0.56177   0.23659   -0.380213           
         H         H         0.02873   0.43271   0.30184   0.085369  
         H         H         0.99162   0.39917   0.03593   0.096117  
         H         H         0.96365   0.47229   0.20006   0.087962  
         H         H         0.96543   0.46031   0.98657   0.077861  
         H         H         0.03722   0.58655   0.19558   0.136433  
         H         H         0.03847   0.60046   0.41364   0.134899  
         H         H         0.96077   0.54640   0.15500   0.117870  
         H         H         0.80927   0.03062   0.26296   0.098504  
         H         H         0.85966   0.07965   0.54509   0.119077  
         C         C         0.80465   0.10101   0.44183   -0.193391           
         S         S         0.87424   0.17375   0.49852   0.015783  
         C         C         0.84525   0.21380   0.49950   -0.150006           
         C         C         0.89934   0.28058   0.56023   -0.374451           
         H         H         0.80671   0.12171   0.58288   0.079255  
         H         H         0.75637   0.07384   0.29893   0.100497  
         H         H         0.83747   0.22508   0.61887   0.094117  
         H         H         0.79641   0.17735   0.33826   0.092307  
         H         H         0.90778   0.26946   0.44275   0.116300  
         H         H         0.94795   0.31608   0.72054   0.116847  
         H         H         0.88514   0.30769   0.56650   0.130582  
         H         H         0.97156   0.79752   0.17918   0.072455  
         H         H         0.01615   0.82210   0.43061   0.091959  
         C         C         0.91109   0.72146   0.18328   -0.183794           
         S         S         0.89370   0.76652   0.32190   -0.002908           
         C         C         0.80602   0.69441   0.19403   -0.136680           
         C         C         0.78790   0.72386   0.32042   -0.370557           
         H         H         0.91206   0.69368   0.22924   0.086195  
         H         H         0.87068   0.68302   0.00581   0.091584  
         H         H         0.80140   0.65679   0.19546   0.079764  
         H         H         0.77297   0.66830   0.02349   0.089352  
         H         H         0.79327   0.76219   0.32178   0.138941  
         H         H         0.82054   0.74941   0.49052   0.106261  
         H         H         0.73488   0.68204   0.24531   0.120746  
         O         O         0.74684   0.78353   0.08533   -0.452409           
         O         O         0.58151   0.87186   0.38526   -0.453943           
         O         O         0.18541   0.95268   0.20560   -0.483040           
         O         O         0.13413   0.69375   0.20925   -0.475811           
         O         O         0.01397   0.19059   0.11876   -0.469087           
         O         O         0.31493   0.46310   0.34135   -0.468203           
         C         C         0.38722   0.69338   0.77577   0.079619  
         C         C         0.30285   0.69423   0.71993   0.070444  
         C         C         0.29348   0.61459   0.74626   0.069607  
         C         C         0.36239   0.72063   0.75108   -0.152104           
         C         C         0.26889   0.64156   0.71948   -0.177541           
         C         C         0.35243   0.64043   0.77209   -0.148017           
         H         H         0.38885   0.76093   0.75007   0.117488  
         H         H         0.22274   0.62206   0.69496   0.106576  
         H         H         0.36965   0.61733   0.78485   0.117050  
         C         C         0.94607   0.98032   0.71311   0.080449  
         C         C         0.97133   0.95328   0.73563   -0.150596           
         C         C         0.03112   0.98061   0.76754   0.069024  
         C         C         0.03968   0.06101   0.74706   0.069012  
         C         C         0.06533   0.03473   0.77345   -0.174640           
         C         C         0.98001   0.03356   0.71763   -0.150831           
         H         H         0.96217   0.05627   0.70506   0.117689  
         H         H         0.94527   0.91265   0.73580   0.121775  
         H         H         0.11205   0.05591   0.79967   0.112556  
         C         C         0.71423   0.84356   0.71568   -0.112876           
         C         C         0.66685   0.78601   0.67930   -0.218215           
         C         C         0.62023   0.77741   0.70679   0.203248  
         C         C         0.62080   0.82863   0.77796   -0.111937           
         C         C         0.66775   0.88580   0.81236   -0.212282           
         C         C         0.71478   0.89486   0.78716   0.204224  
         C         C         0.57807   0.83119   0.83033   0.443818  
         C         C         0.75797   0.84155   0.66703   0.440821  
         C         C         0.15865   0.87872   0.75375   -0.092899           
         C         C         0.20886   0.88634   0.75085   -0.222929           
         C         C         0.21366   0.84127   0.72477   0.206673  
         C         C         0.16701   0.78605   0.70139   -0.100161           
         C         C         0.11625   0.77784   0.70059   -0.224738           
         C         C         0.11130   0.82282   0.72676   0.211872  
         C         C         0.17046   0.73892   0.70207   0.452004  
         C         C         0.15694   0.92787   0.76443   0.452705  
         C         C         0.11846   0.27734   0.70908   -0.101759           
         C         C         0.09870   0.30574   0.66274   -0.204396           
         C         C         0.14126   0.36248   0.69065   0.207387  
         C         C         0.20596   0.39211   0.76024   -0.104732           
         C         C         0.22557   0.36329   0.80427   -0.203222           
         C         C         0.18363   0.30763   0.78122   0.208225  
         C         C         0.25764   0.45146   0.79128   0.455898  
         C         C         0.06702   0.21755   0.67731   0.455855  
         O         O         0.76378   0.95371   0.83557   -0.216465           
         O         O         0.57242   0.71944   0.66359   -0.216424           
         O         O         0.06226   0.81601   0.72734   -0.206977           
         O         O         0.26204   0.84708   0.72136   -0.215730           
         O         O         0.20392   0.28054   0.82995   -0.212584           
         O         O         0.12166   0.39110   0.64965   -0.217806           
         C         C         0.75755   0.00016   0.86743   0.029443  
         C         C         0.57891   0.67287   0.62565   0.028847  
         C         C         0.51969   0.61336   0.57837   -0.188023           
         C         C         0.01062   0.75952   0.69538   0.044301  
         C         C         0.31594   0.90380   0.75966   0.041039  
         C         C         0.35345   0.88547   0.72898   -0.190847           
         C         C         0.25961   0.29416   0.84322   0.030394  
         C         C         0.24507   0.23216   0.79102   -0.181978           
         C         C         0.06817   0.37891   0.65098   0.028933  
         C         C         0.08266   0.44228   0.72209   -0.194666           
         C         C         0.81963   0.06079   0.92583   -0.190149           
         C         C         0.97940   0.78155   0.76536   -0.194441           
         N         N         0.52951   0.77438   0.78883   -0.238309           
         N         N         0.80548   0.89815   0.70547   -0.239604           
         N         N         0.48289   0.76656   0.80758   -0.088593           
         N         N         0.85217   0.90665   0.68563   -0.092406           
         N         N         0.20794   0.73395   0.65090   -0.219170           
         N         N         0.11858   0.93192   0.81319   -0.218403           
         N         N         0.22884   0.70719   0.69296   -0.116635           
         N         N         0.10139   0.96255   0.78169   -0.119373           
         N         N         0.23990   0.48225   0.75805   -0.239316           
         N         N         0.08722   0.18989   0.72220   -0.239805           
         N         N         0.27747   0.53213   0.76074   -0.102060           
         N         N         0.04983   0.13867   0.71542   -0.098836           
         C         C         0.44511   0.71456   0.78731   0.008775  
         C         C         0.27550   0.71976   0.68004   -0.000747           
         C         C         0.25771   0.56031   0.74589   -0.016753           
         C         C         0.88867   0.95864   0.70450   0.006130  
         C         C         0.05648   0.95287   0.80117   -0.001108           
         C         C         0.07485   0.11652   0.75170   -0.015987           
         H         H         0.66949   0.74895   0.63081   0.130059  
         H         H         0.24325   0.92846   0.76572   0.129276  
         H         H         0.04752   0.28002   0.59898   0.134426  
         H         H         0.66507   0.92270   0.86008   0.131378  
         H         H         0.08215   0.73561   0.68563   0.129894  
         H         H         0.27624   0.38804   0.86317   0.136279  
         H         H         0.45355   0.68244   0.77041   0.085003  
         H         H         0.29623   0.75005   0.63990   0.086295  
         H         H         0.21479   0.54615   0.73921   0.082545  
         H         H         0.87990   0.99066   0.72338   0.087222  
         H         H         0.03482   0.92255   0.84055   0.088132  
         H         H         0.12237   0.13722   0.78205   0.080067  
         H         H         0.80478   0.93449   0.75215   0.240352  
         H         H         0.52943   0.73751   0.74068   0.240846  
         H         H         0.75631   0.01916   0.00114   0.068736  
         H         H         0.70951   0.97088   0.71763   0.080727  
         H         H         0.62826   0.70206   0.77002   0.080178  
         H         H         0.57713   0.65286   0.48519   0.069195  
         H         H         0.52059   0.63379   0.71659   0.098885  
         H         H         0.47139   0.58617   0.43532   0.118654  
         C         C         0.52390   0.56227   0.53517   -0.194793           
         S         S         0.45328   0.49076   0.47871   0.017300  
         C         C         0.47795   0.44667   0.46788   -0.152641           
         C         C         0.42397   0.38319   0.42191   -0.371083           
         H         H         0.57188   0.58817   0.67594   0.098944  
         H         H         0.52094   0.54115   0.39237   0.074354  
         H         H         0.52845   0.48275   0.62320   0.091290  
         H         H         0.48163   0.43124   0.33875   0.089571  
         H         H         0.37335   0.34940   0.27207   0.121095  
         H         H         0.42181   0.39928   0.55450   0.108768  
         H         H         0.43383   0.35198   0.40154   0.128534  
         H         H         0.09847   0.90632   0.85743   0.258698  
         H         H         0.22602   0.75772   0.60040   0.254046  
         H         H         0.03379   0.75364   0.79585   0.070719  
         H         H         0.97373   0.71071   0.52263   0.067286  
         H         H         0.34799   0.95344   0.92547   0.067728  
         H         H         0.29486   0.90606   0.64227   0.068152  
         H         H         0.37011   0.87985   0.84132   0.076382  
         H         H         0.31679   0.83378   0.56433   0.094131  
         C         C         0.41441   0.93600   0.75699   -0.189529           
         S         S         0.44170   0.89473   0.68436   -0.002091           
         C         C         0.51462   0.95792   0.72511   -0.137100           
         C         C         0.54381   0.93047   0.67170   -0.384205           
         H         H         0.45588   0.98741   0.92513   0.091284  
         H         H         0.40044   0.94359   0.64868   0.090527  
         H         H         0.55159   0.00783   0.89474   0.085050  
         H         H         0.49779   0.96421   0.61579   0.070251  
         H         H         0.50653   0.88040   0.50220   0.122439  
         H         H         0.56115   0.92334   0.77706   0.136695  
         H         H         0.58739   0.96686   0.69151   0.125915  
         H         H         0.13349   0.21091   0.76573   0.232987  
         H         H         0.19603   0.46501   0.72847   0.235380  
         H         H         0.30782   0.34480   0.00760   0.071369  
         H         H         0.25948   0.29676   0.72306   0.078275  
         H         H         0.19505   0.18446   0.62765   0.089908  
         H         H         0.23972   0.22867   0.90438   0.086451  
         H         H         0.06972   0.37378   0.76720   0.076439  
         H         H         0.01867   0.32940   0.48793   0.061233  
         H         H         0.13470   0.48899   0.87794   0.089314  
         H         H         0.08179   0.44736   0.60586   0.092715  
         C         C         0.29821   0.23405   0.80215   -0.196043           
         S         S         0.27132   0.15646   0.74010   -0.018716           
         C         C         0.34221   0.17191   0.76817   -0.132761           
         C         C         0.32672   0.10730   0.68738   -0.375605           
         H         H         0.34847   0.28108   0.96462   0.091602  
         H         H         0.30267   0.23339   0.68247   0.085501  
         H         H         0.38842   0.21765   0.94035   0.078806  
         H         H         0.34872   0.18355   0.67047   0.077388  
         H         H         0.28415   0.06330   0.51083   0.145205  
         H         H         0.31312   0.09061   0.76806   0.132774  
         H         H         0.37160   0.11874   0.72248   0.114443  
         C         C         0.03419   0.44152   0.75099   -0.200057           
         S         S         0.06261   0.52496   0.89648   -0.028279           
         C         C         0.04041   0.52568   0.68123   -0.136043           
         C         C         0.00061   0.54342   0.66814   -0.368946           
         H         H         0.03081   0.43098   0.85310   0.094991  
         H         H         0.98246   0.40064   0.59450   0.097125  
         H         H         0.01039   0.47405   0.52621   0.082830  
         H         H         0.08702   0.56338   0.71484   0.091966  
         H         H         0.02954   0.59338   0.82685   0.135030  
         H         H         0.95268   0.50452   0.62848   0.106522  
         H         H         0.99102   0.54782   0.54836   0.123953  
         H         H         0.82219   0.04132   0.79562   0.098603  
         H         H         0.86596   0.08734   0.07482   0.119767  
         C         C         0.81642   0.11220   0.96256   -0.194390           
         S         S         0.89052   0.18594   0.03355   0.017200  
         C         C         0.86542   0.22900   0.03406   -0.154078           
         C         C         0.92048   0.29305   0.08470   -0.372525           
         H         H         0.81428   0.13055   0.09424   0.078246  
         H         H         0.77099   0.08712   0.81459   0.094826  
         H         H         0.85874   0.24399   0.15536   0.089960  
         H         H         0.81629   0.19230   0.87342   0.090381  
         H         H         0.92649   0.27762   0.96137   0.111290  
         H         H         0.96968   0.32921   0.24384   0.116525  
         H         H         0.90818   0.32141   0.08788   0.127451  
         H         H         0.97310   0.80340   0.70010   0.074558  
         H         H         0.01556   0.82329   0.94364   0.093273  
         C         C         0.91020   0.72313   0.68716   -0.184171           
         S         S         0.89056   0.76583   0.82150   0.007172  
         C         C         0.80366   0.69191   0.69374   -0.137174           
         C         C         0.78152   0.72030   0.80148   -0.375903           
         H         H         0.91066   0.69463   0.73038   0.087743  
         H         H         0.87125   0.68554   0.50914   0.091622  
         H         H         0.80203   0.65841   0.71424   0.077993  
         H         H         0.77098   0.66149   0.51832   0.088571  
         H         H         0.78117   0.75211   0.77548   0.140106  
         H         H         0.81566   0.75286   0.97821   0.115071  
         H         H         0.73004   0.67744   0.73399   0.119677  
         O         O         0.75009   0.79155   0.59520   -0.455310           
         O         O         0.58778   0.88229   0.90984   -0.452869           
         O         O         0.18691   0.96051   0.72303   -0.486939           
         O         O         0.14284   0.70920   0.75339   -0.478732           
         O         O         0.01201   0.19636   0.61760   -0.470110           
         O         O         0.31091   0.47012   0.84203   -0.463404 

