
##########################################################################
#               Crystallographic Information Format file
#               Produced by PyCifRW module
#
#  This is a CIF file.  CIF has been adopted by the International
#  Union of Crystallography as the standard for data archiving and
#  transmission.
#
#  For information on this file format, follow the CIF links at
#  http://www.iucr.org
##########################################################################

data_image0

_cell_length_a                          37.5403
_cell_length_b                          37.3056
_cell_length_c                          8.07853
_cell_angle_alpha                       105.933
_cell_angle_beta                        57.9471
_cell_angle_gamma                       120.354
_symmetry_space_group_name_H-M          'P 1'
_space_group_name_Hall                  'P 1'
loop_
  _atom_site_type_symbol
  _atom_site_label
  _atom_site_fract_x
  _atom_site_fract_y
  _atom_site_fract_z
  _atom_site_charge
         C         C         0.70492   0.37235   0.25942   0.032146  
         C         C         0.70514   0.33416   0.26022   0.025884  
         C         C         0.74383   0.33489   0.25609   -0.225134           
         C         C         0.78008   0.37268   0.25333   0.176054  
         C         C         0.77935   0.41007   0.25668   0.177311  
         C         C         0.74288   0.41078   0.25896   -0.232529           
         O         O         0.81951   0.44319   0.25659   -0.344095           
         B         B         0.84509   0.42486   0.24989   0.595893  
         O         O         0.82113   0.38123   0.24802   -0.335578           
         C         C         0.89277   0.44866   0.24301   -0.307115           
         S         S         0.92315   0.50282   0.22383   0.158138  
         C         C         0.97037   0.50344   0.21860   -0.108347           
         C         C         0.96226   0.46221   0.23176   -0.028155           
         C         C         0.91804   0.43197   0.24454   -0.094173           
         C         C         0.01158   0.53794   0.20452   0.138629  
         C         C         0.62842   0.33303   0.25371   0.029852  
         C         C         0.66613   0.37177   0.25629   0.029150  
         C         C         0.66603   0.40958   0.25233   -0.229459           
         C         C         0.62947   0.40763   0.24407   0.172198  
         C         C         0.59251   0.36955   0.24213   0.186324  
         C         C         0.59117   0.33240   0.24633   -0.229534           
         O         O         0.56075   0.37654   0.23318   -0.347987           
         B         B         0.57959   0.42002   0.22852   0.585003  
         O         O         0.62236   0.43980   0.23391   -0.335431           
         C         C         0.55540   0.44200   0.22352   -0.307326           
         S         S         0.50082   0.41288   0.22923   0.132965  
         C         C         0.49530   0.45760   0.24062   -0.115215           
         C         C         0.53656   0.49403   0.23378   -0.016740           
         C         C         0.56951   0.48396   0.22426   -0.076711           
         C         C         0.45854   0.46139   0.25477   0.151694  
         C         C         0.66594   0.29463   0.26275   0.029140  
         C         C         0.62800   0.29413   0.25944   0.028425  
         C         C         0.58987   0.25563   0.26122   -0.233743           
         C         C         0.59077   0.21955   0.26482   0.170928  
         C         C         0.62782   0.21999   0.26871   0.176460  
         C         C         0.66511   0.25645   0.26883   -0.233881           
         O         O         0.61946   0.17952   0.27383   -0.341179           
         B         B         0.57653   0.15452   0.27013   0.600570  
         O         O         0.55818   0.17883   0.26540   -0.333517           
         C         C         0.55395   0.10728   0.26731   -0.320513           
         S         S         0.58196   0.08143   0.26576   0.142922  
         C         C         0.53805   0.03254   0.25547   -0.114945           
         C         C         0.50249   0.03731   0.25422   -0.023208           
         C         C         0.51284   0.07992   0.26003   -0.091720           
         C         C         0.53439   0.99304   0.24982   0.149075  
         C         C         0.29550   0.62342   0.24150   0.026082  
         C         C         0.29456   0.66128   0.24229   0.032283  
         C         C         0.25640   0.66009   0.24010   -0.224660           
         C         C         0.22166   0.62209   0.23240   0.179606  
         C         C         0.22328   0.58499   0.22543   0.170896  
         C         C         0.25914   0.58479   0.23090   -0.223612           
         O         O         0.18499   0.55170   0.21063   -0.347599           
         B         B         0.15979   0.56973   0.21139   0.596220  
         O         O         0.18196   0.61326   0.22562   -0.334950           
         C         C         0.11396   0.54550   0.20156   -0.291945           
         S         S         0.08629   0.49135   0.20539   0.132601  
         C         C         0.03773   0.48919   0.21265   -0.130325           
         C         C         0.04492   0.53066   0.20479   -0.007662           
         C         C         0.08814   0.56148   0.20009   -0.097270           
         C         C         0.99623   0.45469   0.22682   0.155553  
         C         C         0.37125   0.66347   0.25422   0.027701  
         C         C         0.33392   0.62451   0.24990   0.031556  
         C         C         0.33411   0.58692   0.25593   -0.232630           
         C         C         0.37086   0.58917   0.26376   0.171540  
         C         C         0.40783   0.62737   0.26446   0.181147  
         C         C         0.40873   0.66438   0.26106   -0.219548           
         O         O         0.43978   0.62047   0.27269   -0.351638           
         B         B         0.42104   0.57702   0.27727   0.588362  
         O         O         0.37805   0.55713   0.27409   -0.334158           
         C         C         0.44504   0.55477   0.28144   -0.308753           
         S         S         0.49932   0.58326   0.27803   0.146429  
         C         C         0.50457   0.53832   0.26113   -0.109791           
         C         C         0.46347   0.50209   0.26637   -0.017827           
         C         C         0.43084   0.51264   0.27606   -0.083409           
         C         C         0.54241   0.53457   0.23613   0.141831  
         C         C         0.33294   0.70102   0.24420   0.029125  
         C         C         0.37092   0.70212   0.24967   0.029559  
         C         C         0.40828   0.74100   0.25104   -0.234175           
         C         C         0.40672   0.77670   0.24648   0.171459  
         C         C         0.36977   0.77555   0.23910   0.170809  
         C         C         0.33303   0.73874   0.23746   -0.230306           
         O         O         0.37741   0.81572   0.23302   -0.338788           
         B         B         0.41991   0.84133   0.23941   0.600481  
         O         O         0.43853   0.81770   0.24808   -0.333419           
         C         C         0.44221   0.88850   0.23890   -0.320064           
         S         S         0.41432   0.91420   0.23817   0.142865  
         C         C         0.45874   0.96321   0.24358   -0.120044           
         C         C         0.49432   0.95852   0.24479   -0.019988           
         C         C         0.48371   0.91599   0.24282   -0.095020           
         C         C         0.46264   0.00275   0.24721   0.151179  
         H         H         0.74523   0.30657   0.25612   0.134635  
         H         H         0.74390   0.44041   0.26008   0.136322  
         H         H         0.90507   0.39886   0.25594   0.134413  
         H         H         0.69400   0.43960   0.25384   0.136660  
         H         H         0.56246   0.30367   0.24006   0.135609  
         H         H         0.60226   0.50754   0.22205   0.138882  
         H         H         0.56059   0.25408   0.25822   0.134409  
         H         H         0.69257   0.25546   0.27642   0.132846  
         H         H         0.49062   0.08979   0.25582   0.136513  
         H         H         0.25435   0.68812   0.24113   0.135764  
         H         H         0.25928   0.55547   0.22467   0.136483  
         H         H         0.09918   0.59454   0.19859   0.138258  
         H         H         0.30609   0.55676   0.25629   0.137408  
         H         H         0.43740   0.69330   0.26652   0.136290  
         H         H         0.39831   0.48962   0.27460   0.139330  
         H         H         0.43733   0.74309   0.25794   0.134046  
         H         H         0.30548   0.73921   0.22835   0.134214  
         H         H         0.50603   0.90630   0.24702   0.136895  
         O         O         0.58691   0.56561   0.19079   -0.200618           
         C         C         0.59408   0.60528   0.29270   0.065188  
         C         C         0.64662   0.63156   0.20849   -0.408344           
         H         H         0.57769   0.59992   0.44874   0.050278  
         H         H         0.57773   0.62020   0.27304   0.052335  
         H         H         0.66328   0.63683   0.05197   0.126568  
         H         H         0.66240   0.61639   0.22995   0.138362  
         H         H         0.65395   0.66188   0.28349   0.128106  
         O         O         0.41725   0.43063   0.25966   -0.195793           
         C         C         0.40671   0.38744   0.25216   0.066270  
         C         C         0.35841   0.36231   0.26630   -0.411427           
         H         H         0.40725   0.38066   0.37466   0.060121  
         H         H         0.43328   0.38100   0.11462   0.050514  
         H         H         0.35764   0.37014   0.14713   0.132822  
         H         H         0.33197   0.36855   0.40486   0.131752  
         H         H         0.34862   0.32895   0.25738   0.133900  
         O         O         0.02290   0.57800   0.17637   -0.213817           
         C         C         0.99269   0.59602   0.33166   0.069886  
         C         C         0.01002   0.63862   0.26419   -0.410568           
         H         H         0.99474   0.59792   0.46481   0.056893  
         H         H         0.95608   0.57609   0.36244   0.049729  
         H         H         0.01061   0.63623   0.12436   0.127761  
         H         H         0.04558   0.65945   0.24422   0.133996  
         H         H         0.98681   0.65285   0.37179   0.127982  
         O         O         0.56472   0.98277   0.24985   -0.190771           
         C         C         0.60892   0.01482   0.23938   0.069467  
         C         C         0.63431   0.99308   0.23552   -0.413968           
         H         H         0.60239   0.03545   0.36717   0.051709  
         H         H         0.62920   0.03318   0.10670   0.057233  
         H         H         0.63984   0.97175   0.11012   0.132975  
         H         H         0.61414   0.97536   0.36986   0.139339  
         H         H         0.66870   0.01620   0.22348   0.130079  
         O         O         0.43257   0.01300   0.24485   -0.193010           
         C         C         0.38747   0.98129   0.26311   0.071066  
         C         C         0.36279   0.00356   0.26477   -0.414858           
         H         H         0.36749   0.96409   0.39912   0.058018  
         H         H         0.39248   0.95949   0.13927   0.050603  
         H         H         0.38340   0.02104   0.12940   0.139251  
         H         H         0.35768   0.02528   0.38875   0.130993  
         H         H         0.32826   0.98085   0.27706   0.131419  
         O         O         0.98345   0.41333   0.23509   -0.192777           
         C         C         0.01458   0.40090   0.23228   0.070708  
         C         C         0.99081   0.35380   0.24160   -0.410277           
         H         H         0.02077   0.41472   0.35873   0.064952  
         H         H         0.04806   0.41203   0.09743   0.063029  
         H         H         0.98361   0.33959   0.11805   0.126978  
         H         H         0.95761   0.34279   0.37717   0.138779  
         H         H         0.01366   0.34309   0.23788   0.129790  
         C         C         0.70257   0.37777   0.75991   0.029443  
         C         C         0.70332   0.33982   0.75937   0.029397  
         C         C         0.74198   0.34079   0.75586   -0.225730           
         C         C         0.77784   0.37867   0.75468   0.179468  
         C         C         0.77662   0.41591   0.76041   0.173074  
         C         C         0.74001   0.41635   0.76268   -0.227867           
         O         O         0.81649   0.44911   0.76282   -0.343343           
         B         B         0.84242   0.43084   0.75372   0.590848  
         O         O         0.81878   0.38723   0.74975   -0.333320           
         C         C         0.89011   0.45480   0.74600   -0.298614           
         S         S         0.91903   0.50897   0.73363   0.144228  
         C         C         0.96736   0.51049   0.72288   -0.119175           
         C         C         0.96048   0.46928   0.72911   -0.020307           
         C         C         0.91650   0.43860   0.74102   -0.099710           
         C         C         0.00820   0.54519   0.71179   0.141173  
         C         C         0.62584   0.33767   0.75533   0.028312  
         C         C         0.66358   0.37666   0.75622   0.029711  
         C         C         0.66339   0.41423   0.75000   -0.226905           
         C         C         0.62653   0.41193   0.74264   0.173381  
         C         C         0.58945   0.37371   0.74317   0.178155  
         C         C         0.58832   0.33672   0.74888   -0.219768           
         O         O         0.55750   0.38050   0.73440   -0.352561           
         B         B         0.57625   0.42397   0.72934   0.585891  
         O         O         0.61923   0.44390   0.73226   -0.331738           
         C         C         0.55203   0.44594   0.72402   -0.299171           
         S         S         0.49614   0.41666   0.74376   0.136619  
         C         C         0.49138   0.46108   0.74447   -0.111866           
         C         C         0.53385   0.49768   0.72481   -0.009645           
         C         C         0.56721   0.48778   0.71283   -0.085434           
         C         C         0.45383   0.46430   0.76303   0.158383  
         C         C         0.66453   0.30012   0.76128   0.028619  
         C         C         0.62591   0.29898   0.76147   0.032364  
         C         C         0.58791   0.26006   0.76598   -0.236072           
         C         C         0.58991   0.22437   0.76721   0.170381  
         C         C         0.62800   0.22561   0.76524   0.173746  
         C         C         0.66502   0.26244   0.76388   -0.230782           
         O         O         0.62100   0.18554   0.76765   -0.338641           
         B         B         0.57759   0.15979   0.76932   0.599428  
         O         O         0.55772   0.18334   0.77003   -0.333558           
         C         C         0.55568   0.11261   0.76727   -0.318889           
         S         S         0.58493   0.08686   0.75555   0.138165  
         C         C         0.54027   0.03784   0.75200   -0.116708           
         C         C         0.50381   0.04259   0.75904   -0.022731           
         C         C         0.51375   0.08510   0.76739   -0.092595           
         C         C         0.53682   0.99824   0.74262   0.149670  
         C         C         0.29264   0.62898   0.74305   0.030027  
         C         C         0.29204   0.66722   0.74688   0.028024  
         C         C         0.25386   0.66669   0.74743   -0.226432           
         C         C         0.21892   0.62902   0.73868   0.179821  
         C         C         0.22022   0.59156   0.72853   0.176104  
         C         C         0.25586   0.59067   0.73274   -0.230840           
         O         O         0.18193   0.55877   0.71235   -0.344931           
         B         B         0.15700   0.57741   0.71553   0.593413  
         O         O         0.17924   0.62083   0.73314   -0.335398           
         C         C         0.11142   0.55353   0.70409   -0.297457           
         S         S         0.08446   0.49939   0.70400   0.136751  
         C         C         0.03570   0.49695   0.71261   -0.123786           
         C         C         0.04200   0.53823   0.70977   -0.011070           
         C         C         0.08500   0.56930   0.70634   -0.087269           
         C         C         0.99503   0.46218   0.72093   0.150969  
         C         C         0.36875   0.66795   0.75241   0.029735  
         C         C         0.33096   0.62932   0.74927   0.029808  
         C         C         0.33061   0.59138   0.75455   -0.229375           
         C         C         0.36693   0.59300   0.76350   0.174747  
         C         C         0.40416   0.63092   0.76466   0.186213  
         C         C         0.40583   0.66824   0.76021   -0.226556           
         O         O         0.43571   0.62352   0.77338   -0.347968           
         B         B         0.41643   0.57999   0.77917   0.583934  
         O         O         0.37356   0.56059   0.77463   -0.336898           
         C         C         0.44052   0.55747   0.78108   -0.309060           
         S         S         0.49617   0.58594   0.76648   0.153199  
         C         C         0.50077   0.54088   0.75208   -0.099861           
         C         C         0.45882   0.50473   0.76727   -0.025388           
         C         C         0.42582   0.51532   0.78043   -0.078754           
         C         C         0.53939   0.53778   0.72159   0.137414  
         C         C         0.33093   0.70662   0.74742   0.029649  
         C         C         0.36925   0.70692   0.74668   0.027713  
         C         C         0.40786   0.74538   0.74044   -0.231128           
         C         C         0.40687   0.78149   0.73765   0.173060  
         C         C         0.36917   0.78122   0.74018   0.174655  
         C         C         0.33139   0.74480   0.74436   -0.235072           
         O         O         0.37751   0.82173   0.73595   -0.339559           
         B         B         0.42114   0.84657   0.73358   0.598431  
         O         O         0.43993   0.82214   0.73333   -0.332924           
         C         C         0.44398   0.89380   0.73490   -0.318134           
         S         S         0.41506   0.91972   0.74509   0.140266  
         C         C         0.45993   0.96861   0.74760   -0.114927           
         C         C         0.49634   0.96378   0.74068   -0.018781           
         C         C         0.48602   0.92117   0.73426   -0.092226           
         C         C         0.46341   0.00816   0.75656   0.152425  
         H         H         0.74377   0.31268   0.75565   0.135793  
         H         H         0.74057   0.44588   0.76601   0.136899  
         H         H         0.90467   0.40550   0.74607   0.136802  
         H         H         0.69146   0.44436   0.74957   0.135871  
         H         H         0.55948   0.30775   0.74529   0.134878  
         H         H         0.60102   0.51132   0.70046   0.140717  
         H         H         0.55794   0.25784   0.76635   0.134766  
         H         H         0.69330   0.26201   0.76705   0.134225  
         H         H         0.49057   0.09479   0.77055   0.135592  
         H         H         0.25206   0.69501   0.75086   0.134047  
         H         H         0.25557   0.56109   0.72559   0.136048  
         H         H         0.09555   0.60230   0.70759   0.136475  
         H         H         0.30246   0.56145   0.75352   0.136331  
         H         H         0.43460   0.69683   0.76738   0.134960  
         H         H         0.39249   0.49232   0.78625   0.137088  
         H         H         0.43761   0.74683   0.73887   0.133828  
         H         H         0.30325   0.74570   0.74198   0.133920  
         H         H         0.50903   0.91144   0.73235   0.137058  
         O         O         0.58351   0.57083   0.66738   -0.220122           
         C         C         0.59076   0.60147   0.81716   0.063706  
         C         C         0.64106   0.63446   0.72195   -0.406294           
         H         H         0.58407   0.58591   0.93470   0.056910  
         H         H         0.56588   0.61480   0.87956   0.047540  
         H         H         0.64841   0.64908   0.59982   0.127506  
         H         H         0.66562   0.62109   0.66702   0.133029  
         H         H         0.64767   0.65875   0.82952   0.128822  
         O         O         0.41125   0.43302   0.78411   -0.189985           
         C         C         0.40381   0.39027   0.74935   0.067570  
         C         C         0.35451   0.36451   0.77456   -0.411461           
         H         H         0.40748   0.38099   0.85539   0.060344  
         H         H         0.43033   0.38710   0.60170   0.043199  
         H         H         0.35039   0.37415   0.67149   0.133771  
         H         H         0.32867   0.36810   0.92285   0.132666  
         H         H         0.34665   0.33148   0.74907   0.134122  
         O         O         0.01993   0.58575   0.68992   -0.210213           
         C         C         0.98539   0.60119   0.82061   0.070819  
         C         C         0.00915   0.64737   0.78264   -0.416261           
         H         H         0.97261   0.59474   0.97228   0.063922  
         H         H         0.95511   0.58510   0.79282   0.048410  
         H         H         0.02272   0.65289   0.62904   0.132975  
         H         H         0.03862   0.66395   0.81513   0.133846  
         H         H         0.98413   0.66066   0.87375   0.131834  
         O         O         0.56787   0.98765   0.73400   -0.192120           
         C         C         0.61101   0.01936   0.73461   0.071415  
         C         C         0.63450   0.99698   0.74201   -0.414771           
         H         H         0.60325   0.03983   0.86223   0.052641  
         H         H         0.63313   0.03793   0.60130   0.058920  
         H         H         0.64208   0.97643   0.61464   0.132281  
         H         H         0.61188   0.97821   0.87466   0.140887  
         H         H         0.66773   0.01972   0.74216   0.131214  
         O         O         0.43205   0.01865   0.76733   -0.192845           
         C         C         0.38995   0.98709   0.75728   0.068975  
         C         C         0.36726   0.00977   0.74538   -0.413578           
         H         H         0.36654   0.96762   0.88839   0.059341  
         H         H         0.39913   0.96741   0.62763   0.054134  
         H         H         0.39058   0.02844   0.61210   0.139345  
         H         H         0.35930   0.03039   0.87219   0.132845  
         H         H         0.33430   0.98720   0.74229   0.130272  
         O         O         0.98439   0.42099   0.71777   -0.193363           
         C         C         0.01292   0.40978   0.74322   0.069976  
         C         C         0.98871   0.36291   0.76257   -0.408944           
         H         H         0.01608   0.42513   0.87484   0.063320  
         H         H         0.04806   0.42017   0.61608   0.060792  
         H         H         0.98346   0.34751   0.63541   0.126940  
         H         H         0.95453   0.35281   0.89423   0.138032  
         H         H         0.01033   0.35285   0.77331   0.130616 

