
##########################################################################
#               Crystallographic Information Format file
#               Produced by PyCifRW module
#
#  This is a CIF file.  CIF has been adopted by the International
#  Union of Crystallography as the standard for data archiving and
#  transmission.
#
#  For information on this file format, follow the CIF links at
#  http://www.iucr.org
##########################################################################

data_image0

_cell_length_a                          15.1094
_cell_length_b                          15.1041
_cell_length_c                          6.24233
_cell_angle_alpha                       89.2786
_cell_angle_beta                        92.6807
_cell_angle_gamma                       120.055
_symmetry_space_group_name_H-M          'P 1'
_space_group_name_Hall                  'P 1'
loop_
  _atom_site_type_symbol
  _atom_site_label
  _atom_site_fract_x
  _atom_site_fract_y
  _atom_site_fract_z
  _atom_site_charge
         B         B         0.05242   0.10565   0.24686   0.717505
         O         O         0.38574   0.77172   0.25017   -0.569727
         C         C         0.22014   0.44011   0.24397   -0.243401
         B         B         0.89241   0.94503   0.25002   0.718846
         O         O         0.22680   0.61229   0.24956   -0.570528
         C         C         0.55785   0.77812   0.24698   -0.240784
         B         B         0.05296   0.94561   0.24816   0.719029
         O         O         0.38529   0.61255   0.23064   -0.569855
         C         C         0.21991   0.77793   0.25211   -0.240509
         B         B         0.94738   0.89561   0.74784   0.718201
         O         O         0.61493   0.22964   0.76084   -0.570676
         C         C         0.78031   0.56108   0.74238   -0.242901
         B         B         0.10793   0.05616   0.75060   0.719739
         O         O         0.77351   0.38865   0.74197   -0.570969
         C         C         0.44257   0.22324   0.75438   -0.242094
         B         B         0.94758   0.05591   0.75237   0.718261
         O         O         0.61517   0.38882   0.75804   -0.571536
         C         C         0.78074   0.22339   0.75873   -0.242213
         B         B         0.43922   0.71899   0.24230   0.720317
         B         B         0.27928   0.71875   0.25078   0.720849
         B         B         0.27928   0.55864   0.24088   0.721721
         B         B         0.56126   0.28238   0.75823   0.722726
         B         B         0.72121   0.28243   0.75440   0.721869
         B         B         0.72121   0.44256   0.74735   0.722708
         O         O         0.10521   0.05206   0.24197   -0.572469
         O         O         0.94610   0.05158   0.25078   -0.572132
         O         O         0.94651   0.89274   0.25006   -0.571901
         O         O         0.89477   0.94937   0.74984   -0.571376
         O         O         0.05385   0.94967   0.74987   -0.572898
         O         O         0.05399   0.10857   0.75083   -0.571841
         C         C         0.11234   0.38528   0.24330   -0.063918
         C         C         0.21910   0.27833   0.24904   -0.055489
         H         H         0.07128   0.42745   0.24115   0.103598
         H         H         0.26004   0.23595   0.25135   0.104543
         C         C         0.61211   0.72567   0.22263   -0.064910
         C         C         0.72030   0.93844   0.27544   -0.055822
         H         H         0.56953   0.64282   0.20218   0.104609
         H         H         0.76301   0.02132   0.29698   0.103878
         C         C         0.27254   0.88562   0.24315   -0.065305
         C         C         0.05919   0.77889   0.26021   -0.054034
         H         H         0.35556   0.92692   0.23607   0.104440
         H         H         0.97601   0.73753   0.26649   0.105085
         C         C         0.88823   0.61634   0.75617   -0.064194
         C         C         0.78045   0.72241   0.72683   -0.055037
         H         H         0.92982   0.57472   0.76784   0.104048
         H         H         0.73891   0.76420   0.71439   0.104639
         C         C         0.38780   0.27610   0.75919   -0.064517
         C         C         0.28057   0.06217   0.74214   -0.054089
         H         H         0.42991   0.35935   0.76569   0.104371
         H         H         0.23834   0.97881   0.73511   0.103785
         C         C         0.72901   0.11626   0.78163   -0.062693
         C         C         0.94097   0.22245   0.73785   -0.054634
         H         H         0.64666   0.07533   0.80066   0.103497
         H         H         0.02362   0.26349   0.72183   0.104423
         C         C         0.38718   0.11546   0.74458   -0.065133
         C         C         0.28117   0.22302   0.75640   -0.054982
         H         H         0.42874   0.07395   0.73865   0.104630
         H         H         0.23953   0.26459   0.76153   0.104942
         C         C         0.72735   0.61585   0.72666   -0.063795
         C         C         0.94155   0.72293   0.75675   -0.055049
         H         H         0.64398   0.57375   0.71371   0.104152
         H         H         0.02498   0.76518   0.76886   0.104256
         C         C         0.88759   0.27558   0.73779   -0.064823
         C         C         0.78214   0.06291   0.78057   -0.056022
         H         H         0.92829   0.35834   0.72039   0.104161
         H         H         0.74150   0.98010   0.79833   0.104092
         C         C         0.61375   0.88533   0.27451   -0.064240
         C         C         0.71869   0.77848   0.22465   -0.055255
         H         H         0.57265   0.92654   0.29504   0.104597
         H         H         0.76004   0.73732   0.20532   0.104929
         C         C         0.27266   0.38488   0.24717   -0.063146
         C         C         0.05854   0.27872   0.24411   -0.053703
         H         H         0.35594   0.42637   0.24802   0.103812
         H         H         0.97511   0.23698   0.24170   0.104255
         C         C         0.11240   0.72557   0.26079   -0.064572
         C         C         0.21961   0.93921   0.24252   -0.055992
         H         H         0.07091   0.64242   0.26813   0.103976
         H         H         0.26107   0.02245   0.23480   0.104487
         C         C         0.11212   0.88655   0.25106   -0.234001
         C         C         0.11135   0.22384   0.24709   -0.234517
         C         C         0.77423   0.88575   0.25023   -0.233740
         C         C         0.88881   0.11520   0.75738   -0.233624
         C         C         0.88828   0.77736   0.74322   -0.235272
         C         C         0.22610   0.11525   0.74900   -0.234655
